TESTE COM CHAVE
$0200 2 0 1 2 0
R0102 1 2 1
V0001 1 0 SIN 0 10 0 0 0 1000
.TRAN 1 0.01 TRAP 1
