* LC TANK
I 1 0 1
L 1 0 1
C 1 0 1
.TRAN 6.3 0.001 TRAP 1000
