TESTE FONTE PULSE
V1 1 0 PULSE 0 1 0.01 0 0 2 4 2
L1 1 2 1
R1 2 0 1
.TRAN 10 0.001 TRAP 1
