Circuito RL
I0100 1 0 10
R0102 1 0 1
L0102 1 2 1
V0200 2 0 1
.TRAN 10 0.01 TRAP 1
