Circuito RL
V0100 1 0 PULSE 0 10 0.1 0 0 2 3 2
R0102 2 0 1
L0102 1 2 1
.TRAN 10 0.01 TRAP 1
