Circuito RC
V0100 1 0 10
R0102 1 2 1
L0200 2 0 1
.TRAN 0.5 0.1 TRAP 1
