TRANSFORMADOR IDEAL
V 1 0 SIN 0.5 10 1 0 1 0 4
K 1 0 3 0 2
R1 3 0 1
.TRAN 5 0.1 TRAP 4
