Fonte regulada com filtro capacitivo
V1 1 0 SIN 0 12 60 0 0 0 100000
V2 0 2 SIN 0 12 60 0 0 0 100000
D1 1 3
D2 2 3
C1 3 0 0.2
RL 3 0 1
.TRAN 2 0.00001 TRAP 1
