TESTE COM FONTE SENOIDAL E CAPACITORES
VSIN 1 0 SIN 0 2 10 0 0 90 1 
R1 1 2 1
C2 2 0 1
R2 2 0 1
.TRAN 10 0.001 TRAP 1