FONTE DC
V0100 1 0 DC 10
R0102 1 2 1
R0200 2 0 1
.TRAN 10 0.005 TRAP 1
