
V01 1 0 DC 5
D01 1 2 
R01 2 0 1
D02 3 1
R02 3 0 1
.TRAN 0 1 TRAP 1
