TESTE COM DIODOS EM SENTIDOS OPOSTOS
.TRAN 0 1 TRAP 1 
V1 1 0 DC 2
R1 1 2 1
D1 2 3
R2 3 0 1
D2 4 2
R3 4 0 1
