
V1 1 0 SIN 0 1 1 0 0 0 4
D1 1 2
R1 2 0 1
.TRAN 6 0.01 TRAP 1
