CIRCUITO COM DOIS INTEGRADORES INTERCONECTADOS POR BUFFER
R1 1 2 1
C1 2 3 1
V1 1 0 PULSE 0 10 0.01 0 0 100 101 1
O1 3 0 0 2
.TRAN 10 0.01 TRAP 1
