LC TANK
*I0100 1 0 PULSE 0 10 0.01 0.01 0.01 30 30.03 1
I0100 1 0 DC 10
C0100 1 0 1
L0100 1 0 1
.TRAN 20 0.001 TRAP 1
