FONTE PULSE
V0100 1 0 PULSE 0 2 1 0.1 0.1 0.8 2 1 
R0102 1 2 1
R0200 2 0 1
.TRAN 4 0.1 TRAP 1
