FONTE PULSE
V0100 1 0 PULSE 2 2 1 0.5 0.5 0.5 2 0.05
R1 1 0 1
*R0102 1 2 1
*R0200 2 0 1
.TRAN 10 0.01 TRAP 1
