FONTE SENOIDAL
V0100 1 0 SIN 0 2 10 0 0.2 90 1000
R0102 1 2 1
R0200 2 0 1
.TRAN 10 0.005 TRAP 1
