Teste com chave
V1 1 0 DC 4
R1 1 2 1
R2 2 0 1
V2 3 0 DC 1
$1 3 4 2 0 2
R1 4 0 1
.TRAN 0 1 DC 1
