TESTE COM TRANSFORMADOR
*VDC 1 0 DC 2
Vsin 1 0 SIN 0 2 1 0 0 0 1
K1  1 0 2 0 2
R1  2 0 1
.TRAN 10 0.001 TRAP 1
